data/open_dss/uhs6_1247/uhs6_1247--udt6570/Loads_scenario_45.dss
New Load.load_p1ulv1718 conn=wye bus1=p1ulv1718.1.2 kV=0.2080002494301389 Vminpu=0.8 Vmaxpu=1.2 model=1 kW=11.61 kvar=0.8302683323425464 Phases=2

New Load.load_p1ulv1719 conn=wye bus1=p1ulv1719.1.2 kV=0.2080002494301389 Vminpu=0.8 Vmaxpu=1.2 model=1 kW=4.90005 kvar=1.0001138028631646 Phases=2

New Load.load_p1ulv1720 conn=wye bus1=p1ulv1720.1.2 kV=0.2080002494301389 Vminpu=0.8 Vmaxpu=1.2 model=1 kW=10.7 kvar=0.6497938057886328 Phases=2

New Load.load_p1ulv1721 conn=wye bus1=p1ulv1721.1.2 kV=0.2080002494301389 Vminpu=0.8 Vmaxpu=1.2 model=1 kW=12.08 kvar=0.9300188186367714 Phases=2

New Load.load_p1ulv1722 conn=wye bus1=p1ulv1722.1.2 kV=0.2080002494301389 Vminpu=0.8 Vmaxpu=1.2 model=1 kW=4.33004 kvar=0.879252122891664 Phases=2

New Load.load_p1ulv1723 conn=wye bus1=p1ulv1723.1.2 kV=0.2080002494301389 Vminpu=0.8 Vmaxpu=1.2 model=1 kW=11.88 kvar=0.8894050559233643 Phases=2

New Load.load_p1ulv1724 conn=wye bus1=p1ulv1724.1.2 kV=0.2080002494301389 Vminpu=0.8 Vmaxpu=1.2 model=1 kW=12.3801 kvar=0.9909364168269728 Phases=2

New Load.load_p1ulv1725 conn=wye bus1=p1ulv1725.1.2 kV=0.2080002494301389 Vminpu=0.8 Vmaxpu=1.2 model=1 kW=4.48004 kvar=0.9097109219867646 Phases=2

New Load.load_p1ulv1726 conn=wye bus1=p1ulv1726.1.2 kV=0.2080002494301389 Vminpu=0.8 Vmaxpu=1.2 model=1 kW=4.90005 kvar=0.9898580894334593 Phases=2

New Load.load_p1ulv1727 conn=wye bus1=p1ulv1727.1.2 kV=0.2080002494301389 Vminpu=0.8 Vmaxpu=1.2 model=1 kW=11.79 kvar=0.8711297764663039 Phases=2

New Load.load_p1ulv1728 conn=wye bus1=p1ulv1728.1.2 kV=0.2080002494301389 Vminpu=0.8 Vmaxpu=1.2 model=1 kW=11.72 kvar=0.8591212600552419 Phases=2

New Load.load_p1ulv1729 conn=wye bus1=p1ulv1729.1.2 kV=0.2080002494301389 Vminpu=0.8 Vmaxpu=1.2 model=1 kW=13.1401 kvar=1.1393473568412724 Phases=2

New Load.load_p1ulv1730 conn=wye bus1=p1ulv1730.1.2 kV=0.2080002494301389 Vminpu=0.8 Vmaxpu=1.2 model=1 kW=5.72006 kvar=1.1585113559957074 Phases=2

New Load.load_p1ulv1731 conn=wye bus1=p1ulv1731.1.2 kV=0.2080002494301389 Vminpu=0.8 Vmaxpu=1.2 model=1 kW=3.79004 kvar=0.7696004461493017 Phases=2

New Load.load_p1ulv1732 conn=wye bus1=p1ulv1732.1.2 kV=0.2080002494301389 Vminpu=0.8 Vmaxpu=1.2 model=1 kW=11.9 kvar=0.8911613351670004 Phases=2

New Load.load_p1ulv1733 conn=wye bus1=p1ulv1733.1.2 kV=0.2080002494301389 Vminpu=0.8 Vmaxpu=1.2 model=1 kW=10.69 kvar=0.6494304777239135 Phases=2

New Load.load_p1ulv1734 conn=wye bus1=p1ulv1734.1.2 kV=0.2080002494301389 Vminpu=0.8 Vmaxpu=1.2 model=1 kW=12.67 kvar=1.0498234284108339 Phases=2

New Load.load_p1ulv1735 conn=wye bus1=p1ulv1735.1.2 kV=0.2080002494301389 Vminpu=0.8 Vmaxpu=1.2 model=1 kW=15.7101 kvar=1.6714188194316502 Phases=2

New Load.load_p1ulv1736 conn=wye bus1=p1ulv1736.1.2 kV=0.2080002494301389 Vminpu=0.8 Vmaxpu=1.2 model=1 kW=4.22004 kvar=0.8591212600552419 Phases=2

New Load.load_p1ulv1737 conn=wye bus1=p1ulv1737.1.2 kV=0.2080002494301389 Vminpu=0.8 Vmaxpu=1.2 model=1 kW=12.0601 kvar=0.9307188593475932 Phases=2

New Load.load_p1ulv1738 conn=wye bus1=p1ulv1738.1.2 kV=0.2080002494301389 Vminpu=0.8 Vmaxpu=1.2 model=1 kW=11.65 kvar=0.8405276287025704 Phases=2

New Load.load_p1ulv1739 conn=wye bus1=p1ulv1739.1.2 kV=0.2080002494301389 Vminpu=0.8 Vmaxpu=1.2 model=1 kW=15.0301 kvar=1.529047959266903 Phases=2

New Load.load_p1ulv1740 conn=wye bus1=p1ulv1740.1.2 kV=0.2080002494301389 Vminpu=0.8 Vmaxpu=1.2 model=1 kW=5.08005 kvar=1.0288870420985081 Phases=2

New Load.load_p1ulv1741 conn=wye bus1=p1ulv1741.1.2 kV=0.2080002494301389 Vminpu=0.8 Vmaxpu=1.2 model=1 kW=13.8201 kvar=1.2800322515103388 Phases=2

New Load.load_p1ulv1742 conn=wye bus1=p1ulv1742.1.2 kV=0.2080002494301389 Vminpu=0.8 Vmaxpu=1.2 model=1 kW=12.92 kvar=1.1005880935693348 Phases=2

New Load.load_p1ulv1743 conn=wye bus1=p1ulv1743.1.2 kV=0.2080002494301389 Vminpu=0.8 Vmaxpu=1.2 model=1 kW=12.2301 kvar=0.960477617731872 Phases=2

New Load.load_p1ulv1744 conn=wye bus1=p1ulv1744.1.2 kV=0.2080002494301389 Vminpu=0.8 Vmaxpu=1.2 model=1 kW=11.67 kvar=0.8489421946902781 Phases=2

New Load.load_p1ulv1745 conn=wye bus1=p1ulv1745.1.2 kV=0.2080002494301389 Vminpu=0.8 Vmaxpu=1.2 model=1 kW=13.0401 kvar=1.1191463774750727 Phases=2

New Load.load_p1ulv1746 conn=wye bus1=p1ulv1746.1.2 kV=0.2080002494301389 Vminpu=0.8 Vmaxpu=1.2 model=1 kW=11.74 kvar=0.8609768434346036 Phases=2

New Load.load_p1ulv1747 conn=wye bus1=p1ulv1747.1.2 kV=0.2080002494301389 Vminpu=0.8 Vmaxpu=1.2 model=1 kW=12.9101 kvar=1.101385051554455 Phases=2

New Load.load_p1ulv1748 conn=wye bus1=p1ulv1748.1.2 kV=0.2080002494301389 Vminpu=0.8 Vmaxpu=1.2 model=1 kW=12.2301 kvar=0.960477617731872 Phases=2

New Load.load_p1ulv1749 conn=wye bus1=p1ulv1749.1.2 kV=0.2080002494301389 Vminpu=0.8 Vmaxpu=1.2 model=1 kW=11.2 kvar=0.7493869570665965 Phases=2

New Load.load_p1ulv1750 conn=wye bus1=p1ulv1750.1.2 kV=0.2080002494301389 Vminpu=0.8 Vmaxpu=1.2 model=1 kW=19.09 kvar=0.8305180443395029 Phases=2

New Load.load_p1ulv1751 conn=wye bus1=p1ulv1751.1.2 kV=0.2080002494301389 Vminpu=0.8 Vmaxpu=1.2 model=1 kW=11.24 kvar=0.7594475131176014 Phases=2

New Load.load_p1ulv1752 conn=wye bus1=p1ulv1752.1.2 kV=0.2080002494301389 Vminpu=0.8 Vmaxpu=1.2 model=1 kW=11.46 kvar=0.7999668632932473 Phases=2

New Load.load_p1ulv1753 conn=wye bus1=p1ulv1753.1.2 kV=0.2080002494301389 Vminpu=0.8 Vmaxpu=1.2 model=1 kW=12.03 kvar=0.9198658856050712 Phases=2

New Load.load_p1ulv1754 conn=wye bus1=p1ulv1754.1.2 kV=0.2080002494301389 Vminpu=0.8 Vmaxpu=1.2 model=1 kW=12.9101 kvar=1.101385051554455 Phases=2

New Load.load_p1ulv1755 conn=wye bus1=p1ulv1755.1.2 kV=0.2080002494301389 Vminpu=0.8 Vmaxpu=1.2 model=1 kW=11.03 kvar=0.7204909600226704 Phases=2

New Load.load_p1ulv1756 conn=wye bus1=p1ulv1756.1.2 kV=0.2080002494301389 Vminpu=0.8 Vmaxpu=1.2 model=1 kW=12.51 kvar=1.019952528634744 Phases=2

New Load.load_p1ulv1757 conn=wye bus1=p1ulv1757.1.2 kV=0.2080002494301389 Vminpu=0.8 Vmaxpu=1.2 model=1 kW=11.94 kvar=0.8992627282013091 Phases=2

New Load.load_p1ulv1758 conn=wye bus1=p1ulv1758.1.2 kV=0.2080002494301389 Vminpu=0.8 Vmaxpu=1.2 model=1 kW=5.21005 kvar=1.0606687900945995 Phases=2

New Load.load_p1ulv1759 conn=wye bus1=p1ulv1759.1.2 kV=0.2080002494301389 Vminpu=0.8 Vmaxpu=1.2 model=1 kW=12.28 kvar=0.9706305507635722 Phases=2

New Load.load_p1ulv1760 conn=wye bus1=p1ulv1760.1.2 kV=0.2080002494301389 Vminpu=0.8 Vmaxpu=1.2 model=1 kW=12.3 kvar=0.9696571100672596 Phases=2

New Load.load_p1ulv1761 conn=wye bus1=p1ulv1761.1.2 kV=0.2080002494301389 Vminpu=0.8 Vmaxpu=1.2 model=1 kW=12.2701 kvar=0.9710930148829175 Phases=2

New Load.load_p1ulv1762 conn=wye bus1=p1ulv1762.1.2 kV=0.2080002494301389 Vminpu=0.8 Vmaxpu=1.2 model=1 kW=15.9701 kvar=1.7199231002628672 Phases=2

New Load.load_p1ulv1763 conn=wye bus1=p1ulv1763.1.2 kV=0.2080002494301389 Vminpu=0.8 Vmaxpu=1.2 model=1 kW=1.38001 kvar=0.28022298226153225 Phases=2

New Load.load_p1ulv1764 conn=wye bus1=p1ulv1764.1.2 kV=0.2080002494301389 Vminpu=0.8 Vmaxpu=1.2 model=1 kW=6.700070000000001 kvar=1.3605072403540732 Phases=2

New Load.load_p1ulv1765 conn=wye bus1=p1ulv1765.1.2 kV=0.2080002494301389 Vminpu=0.8 Vmaxpu=1.2 model=1 kW=10.84 kvar=0.679967673818805 Phases=2

New Load.load_p1ulv1766 conn=wye bus1=p1ulv1766.1.2 kV=0.2080002494301389 Vminpu=0.8 Vmaxpu=1.2 model=1 kW=3.37003 kvar=0.6807790649347335 Phases=2

New Load.load_p1ulv1767 conn=wye bus1=p1ulv1767.1.2 kV=0.2080002494301389 Vminpu=0.8 Vmaxpu=1.2 model=1 kW=12.01 kvar=0.9205137205953031 Phases=2

New Load.load_p1ulv1768 conn=wye bus1=p1ulv1768.1.2 kV=0.2080002494301389 Vminpu=0.8 Vmaxpu=1.2 model=1 kW=1.62002 kvar=0.32980578945097516 Phases=2

New Load.load_p1ulv1769 conn=wye bus1=p1ulv1769.1.2 kV=0.2080002494301389 Vminpu=0.8 Vmaxpu=1.2 model=1 kW=12.4001 kvar=0.9898580894334593 Phases=2

New Load.load_p1ulv1770 conn=wye bus1=p1ulv1770.1.2 kV=0.2080002494301389 Vminpu=0.8 Vmaxpu=1.2 model=1 kW=12.3101 kvar=0.9792362671748885 Phases=2

New Load.load_p1ulv1771 conn=wye bus1=p1ulv1771.1.2 kV=0.2080002494301389 Vminpu=0.8 Vmaxpu=1.2 model=1 kW=12.4801 kvar=1.011242282890373 Phases=2

New Load.load_p1ulv1772 conn=wye bus1=p1ulv1772.1.2 kV=0.2080002494301389 Vminpu=0.8 Vmaxpu=1.2 model=1 kW=4.22004 kvar=0.8591212600552419 Phases=2

New Load.load_p1ulv1773 conn=wye bus1=p1ulv1773.1.2 kV=0.2080002494301389 Vminpu=0.8 Vmaxpu=1.2 model=1 kW=11.67 kvar=0.8489421946902781 Phases=2

New Load.load_p1ulv1774 conn=wye bus1=p1ulv1774.1.2 kV=0.2080002494301389 Vminpu=0.8 Vmaxpu=1.2 model=1 kW=4.13004 kvar=0.840798942398307 Phases=2

New Load.load_p1ulv1775 conn=wye bus1=p1ulv1775.1.2 kV=0.2080002494301389 Vminpu=0.8 Vmaxpu=1.2 model=1 kW=12.7901 kvar=1.079713885131026 Phases=2

New Load.load_p1ulv1776 conn=wye bus1=p1ulv1776.1.2 kV=0.2080002494301389 Vminpu=0.8 Vmaxpu=1.2 model=1 kW=2.39002 kvar=0.49029398470315966 Phases=2

New Load.load_p1ulv1777 conn=wye bus1=p1ulv1777.1.2 kV=0.2080002494301389 Vminpu=0.8 Vmaxpu=1.2 model=1 kW=12.92 kvar=1.1005880935693348 Phases=2

New Load.load_p1ulv1778 conn=wye bus1=p1ulv1778.1.2 kV=0.2080002494301389 Vminpu=0.8 Vmaxpu=1.2 model=1 kW=11.86 kvar=0.8807707807580453 Phases=2

New Load.load_p1ulv1779 conn=wye bus1=p1ulv1779.1.2 kV=0.2080002494301389 Vminpu=0.8 Vmaxpu=1.2 model=1 kW=11.27 kvar=0.7596010602602379 Phases=2

New Load.load_p1ulv1780 conn=wye bus1=p1ulv1780.1.2 kV=0.2080002494301389 Vminpu=0.8 Vmaxpu=1.2 model=1 kW=11.52 kvar=0.8205013197951115 Phases=2

New Load.load_p1ulv1781 conn=wye bus1=p1ulv1781.1.2 kV=0.2080002494301389 Vminpu=0.8 Vmaxpu=1.2 model=1 kW=11.6 kvar=0.8304008874096844 Phases=2

New Load.load_p1ulv1782 conn=wye bus1=p1ulv1782.1.2 kV=0.2080002494301389 Vminpu=0.8 Vmaxpu=1.2 model=1 kW=3.87004 kvar=0.7797494157222552 Phases=2

New Load.load_p1ulv1783 conn=wye bus1=p1ulv1783.1.2 kV=0.2080002494301389 Vminpu=0.8 Vmaxpu=1.2 model=1 kW=4.02004 kvar=0.8205013197951115 Phases=2

New Load.load_p1ulv1784 conn=wye bus1=p1ulv1784.1.2 kV=0.2080002494301389 Vminpu=0.8 Vmaxpu=1.2 model=1 kW=3.9800400000000002 kvar=0.8102617463034154 Phases=2

New Load.load_p1ulv3603 conn=wye bus1=p1ulv3603.1.2 kV=0.2080002494301389 Vminpu=0.8 Vmaxpu=1.2 model=1 kW=12.78 kvar=1.069394007270052 Phases=2

New Load.load_p1ulv3604 conn=wye bus1=p1ulv3604.1.2 kV=0.2080002494301389 Vminpu=0.8 Vmaxpu=1.2 model=1 kW=5.41005 kvar=1.101385051554455 Phases=2

New Load.load_p1ulv3605 conn=wye bus1=p1ulv3605.1.2 kV=0.2080002494301389 Vminpu=0.8 Vmaxpu=1.2 model=1 kW=13.8001 kvar=1.2792817455138652 Phases=2

New Load.load_p1ulv3606 conn=wye bus1=p1ulv3606.1.2 kV=0.2080002494301389 Vminpu=0.8 Vmaxpu=1.2 model=1 kW=13.4101 kvar=1.200088867866603 Phases=2

New Load.load_p1ulv3607 conn=wye bus1=p1ulv3607.1.2 kV=0.2080002494301389 Vminpu=0.8 Vmaxpu=1.2 model=1 kW=14.4101 kvar=1.399529824114652 Phases=2

New Load.load_p1ulv3608 conn=wye bus1=p1ulv3608.1.2 kV=0.2080002494301389 Vminpu=0.8 Vmaxpu=1.2 model=1 kW=14.6901 kvar=1.4600059840647355 Phases=2

New Load.load_p1ulv3609 conn=wye bus1=p1ulv3609.1.2 kV=0.2080002494301389 Vminpu=0.8 Vmaxpu=1.2 model=1 kW=12.1 kvar=0.9292551513348608 Phases=2

New Load.load_p1ulv3610 conn=wye bus1=p1ulv3610.1.2 kV=0.2080002494301389 Vminpu=0.8 Vmaxpu=1.2 model=1 kW=4.630050000000001 kvar=0.9401717516684716 Phases=2

New Load.load_p1ulv3611 conn=wye bus1=p1ulv3611.1.2 kV=0.2080002494301389 Vminpu=0.8 Vmaxpu=1.2 model=1 kW=11.05 kvar=0.7208663675971405 Phases=2

New Load.load_p1ulv3612 conn=wye bus1=p1ulv3612.1.2 kV=0.2080002494301389 Vminpu=0.8 Vmaxpu=1.2 model=1 kW=4.73005 kvar=0.960477617731872 Phases=2

New Load.load_p1ulv3613 conn=wye bus1=p1ulv3613.1.2 kV=0.2080002494301389 Vminpu=0.8 Vmaxpu=1.2 model=1 kW=14.3401 kvar=1.3889354528428337 Phases=2

New Load.load_p1ulv3614 conn=wye bus1=p1ulv3614.1.2 kV=0.2080002494301389 Vminpu=0.8 Vmaxpu=1.2 model=1 kW=10.71 kvar=0.6501428670480555 Phases=2

New Load.load_p1ulv3615 conn=wye bus1=p1ulv3615.1.2 kV=0.2080002494301389 Vminpu=0.8 Vmaxpu=1.2 model=1 kW=12.7401 kvar=1.0612926142357433 Phases=2

New Load.load_p1ulv3616 conn=wye bus1=p1ulv3616.1.2 kV=0.2080002494301389 Vminpu=0.8 Vmaxpu=1.2 model=1 kW=3.85004 kvar=0.7797671809452545 Phases=2

New Load.load_p1ulv3617 conn=wye bus1=p1ulv3617.1.2 kV=0.2080002494301389 Vminpu=0.8 Vmaxpu=1.2 model=1 kW=2.87003 kvar=0.5797741681037358 Phases=2

New Load.load_p1ulv3618 conn=wye bus1=p1ulv3618.1.2 kV=0.2080002494301389 Vminpu=0.8 Vmaxpu=1.2 model=1 kW=13.8301 kvar=1.2886818900828627 Phases=2

New Load.load_p1ulv3619 conn=wye bus1=p1ulv3619.1.2 kV=0.2080002494301389 Vminpu=0.8 Vmaxpu=1.2 model=1 kW=13.8401 kvar=1.2907177031558559 Phases=2

New Load.load_p1ulv3620 conn=wye bus1=p1ulv3620.1.2 kV=0.2080002494301389 Vminpu=0.8 Vmaxpu=1.2 model=1 kW=12.7401 kvar=1.0612926142357433 Phases=2

New Load.load_p1ulv3621 conn=wye bus1=p1ulv3621.1.2 kV=0.2080002494301389 Vminpu=0.8 Vmaxpu=1.2 model=1 kW=13.6201 kvar=1.239525286338795 Phases=2

New Load.load_p1ulv3622 conn=wye bus1=p1ulv3622.1.2 kV=0.2080002494301389 Vminpu=0.8 Vmaxpu=1.2 model=1 kW=13.9601 kvar=1.30838712713042 Phases=2

New Load.load_p1ulv3623 conn=wye bus1=p1ulv3623.1.2 kV=0.2080002494301389 Vminpu=0.8 Vmaxpu=1.2 model=1 kW=13.9701 kvar=1.3104124753889972 Phases=2

New Load.load_p1ulv3624 conn=wye bus1=p1ulv3624.1.2 kV=0.2080002494301389 Vminpu=0.8 Vmaxpu=1.2 model=1 kW=12.42 kvar=0.9990587632523329 Phases=2

New Load.load_p1ulv3625 conn=wye bus1=p1ulv3625.1.2 kV=0.2080002494301389 Vminpu=0.8 Vmaxpu=1.2 model=1 kW=6.05006 kvar=1.2285170803553642 Phases=2

New Load.load_p1ulv3626 conn=wye bus1=p1ulv3626.1.2 kV=0.2080002494301389 Vminpu=0.8 Vmaxpu=1.2 model=1 kW=12.5601 kvar=1.030131593999708 Phases=2

New Load.load_p1ulv3627 conn=wye bus1=p1ulv3627.1.2 kV=0.2080002494301389 Vminpu=0.8 Vmaxpu=1.2 model=1 kW=6.89007 kvar=1.399088385874534 Phases=2

New Load.load_p1ulv3628 conn=wye bus1=p1ulv3628.1.2 kV=0.2080002494301389 Vminpu=0.8 Vmaxpu=1.2 model=1 kW=12.93 kvar=1.0997742311487098 Phases=2

New Load.load_p1ulv3629 conn=wye bus1=p1ulv3629.1.2 kV=0.2080002494301389 Vminpu=0.8 Vmaxpu=1.2 model=1 kW=11.58 kvar=0.8306198770333432 Phases=2

New Load.load_p1ulv3630 conn=wye bus1=p1ulv3630.1.2 kV=0.2080002494301389 Vminpu=0.8 Vmaxpu=1.2 model=1 kW=13.7001 kvar=1.2589758794504644 Phases=2

New Load.load_p1ulv3631 conn=wye bus1=p1ulv3631.1.2 kV=0.2080002494301389 Vminpu=0.8 Vmaxpu=1.2 model=1 kW=12.62 kvar=1.0396704953791336 Phases=2

New Load.load_p1ulv3632 conn=wye bus1=p1ulv3632.1.2 kV=0.2080002494301389 Vminpu=0.8 Vmaxpu=1.2 model=1 kW=14.2801 kvar=1.3802955141806108 Phases=2

New Load.load_p1ulv3633 conn=wye bus1=p1ulv3633.1.2 kV=0.2080002494301389 Vminpu=0.8 Vmaxpu=1.2 model=1 kW=12.2401 kvar=0.9600252013068835 Phases=2

New Load.load_p1ulv3634 conn=wye bus1=p1ulv3634.1.2 kV=0.2080002494301389 Vminpu=0.8 Vmaxpu=1.2 model=1 kW=12.18 kvar=0.9503246847001716 Phases=2

New Load.load_p1ulv3635 conn=wye bus1=p1ulv3635.1.2 kV=0.2080002494301389 Vminpu=0.8 Vmaxpu=1.2 model=1 kW=11.18 kvar=0.7491873541136322 Phases=2

New Load.load_p1ulv3636 conn=wye bus1=p1ulv3636.1.2 kV=0.2080002494301389 Vminpu=0.8 Vmaxpu=1.2 model=1 kW=2.26002 kvar=0.4600978261225126 Phases=2

New Load.load_p1ulv3637 conn=wye bus1=p1ulv3637.1.2 kV=0.2080002494301389 Vminpu=0.8 Vmaxpu=1.2 model=1 kW=5.08005 kvar=1.0288870420985081 Phases=2

New Load.load_p1ulv3638 conn=wye bus1=p1ulv3638.1.2 kV=0.2080002494301389 Vminpu=0.8 Vmaxpu=1.2 model=1 kW=3.57004 kvar=0.7305125553603958 Phases=2

New Load.load_p1ulv3639 conn=wye bus1=p1ulv3639.1.2 kV=0.2080002494301389 Vminpu=0.8 Vmaxpu=1.2 model=1 kW=12.62 kvar=1.0396704953791336 Phases=2

New Load.load_p1ulv3640 conn=wye bus1=p1ulv3640.1.2 kV=0.2080002494301389 Vminpu=0.8 Vmaxpu=1.2 model=1 kW=12.5701 kvar=1.0295175623474335 Phases=2

New Load.load_p1ulv3641 conn=wye bus1=p1ulv3641.1.2 kV=0.2080002494301389 Vminpu=0.8 Vmaxpu=1.2 model=1 kW=13.3401 kvar=1.1889270495062174 Phases=2

New Load.load_p1ulv3642 conn=wye bus1=p1ulv3642.1.2 kV=0.2080002494301389 Vminpu=0.8 Vmaxpu=1.2 model=1 kW=11.4101 kvar=2.3228830744154836 Phases=2

New Load.load_p1ulv3643 conn=wye bus1=p1ulv3643.1.2 kV=0.2080002494301389 Vminpu=0.8 Vmaxpu=1.2 model=1 kW=15.1901 kvar=1.5615373449683438 Phases=2

New Load.load_p1ulv3644 conn=wye bus1=p1ulv3644.1.2 kV=0.2080002494301389 Vminpu=0.8 Vmaxpu=1.2 model=1 kW=16.0301 kvar=1.7321086504875136 Phases=2

New Load.load_p1ulv5313 conn=wye bus1=p1ulv5313.1.2 kV=0.2080002494301389 Vminpu=0.8 Vmaxpu=1.2 model=1 kW=13.6801 kvar=1.2613673959495373 Phases=2

New Load.load_p1ulv5314 conn=wye bus1=p1ulv5314.1.2 kV=0.2080002494301389 Vminpu=0.8 Vmaxpu=1.2 model=1 kW=12.5201 kvar=1.0193646293157332 Phases=2

New Load.load_p1ulv5316 conn=wye bus1=p1ulv5316.1.2 kV=0.2080002494301389 Vminpu=0.8 Vmaxpu=1.2 model=1 kW=19.35 kvar=0.8810345938741143 Phases=2

New Load.load_p1ulv5317 conn=wye bus1=p1ulv5317.1.2 kV=0.2080002494301389 Vminpu=0.8 Vmaxpu=1.2 model=1 kW=12.6301 kvar=1.0390137833913942 Phases=2

New Load.load_p1ulv5318 conn=wye bus1=p1ulv5318.1.2 kV=0.2080002494301389 Vminpu=0.8 Vmaxpu=1.2 model=1 kW=12.67 kvar=1.0498234284108339 Phases=2

New Load.load_p1ulv5319 conn=wye bus1=p1ulv5319.1.2 kV=0.2080002494301389 Vminpu=0.8 Vmaxpu=1.2 model=1 kW=12.55 kvar=1.0307292191200343 Phases=2

New Load.load_p1ulv5320 conn=wye bus1=p1ulv5320.1.2 kV=0.2080002494301389 Vminpu=0.8 Vmaxpu=1.2 model=1 kW=12.7701 kvar=1.0701292944742342 Phases=2

New Load.load_p1ulv5321 conn=wye bus1=p1ulv5321.1.2 kV=0.2080002494301389 Vminpu=0.8 Vmaxpu=1.2 model=1 kW=12.2401 kvar=0.9600252013068835 Phases=2

New Load.load_p1ulv5322 conn=wye bus1=p1ulv5322.1.2.3 kV=0.48 Vminpu=0.8 Vmaxpu=1.2 model=1 kW=66.29070000000002 kvar=13.460900754490591 Phases=3

New Load.load_p1ulv5323 conn=wye bus1=p1ulv5323.1.2 kV=0.2080002494301389 Vminpu=0.8 Vmaxpu=1.2 model=1 kW=13.4301 kvar=1.2103417021880876 Phases=2

New Load.load_p1ulv5324 conn=wye bus1=p1ulv5324.1.2 kV=0.2080002494301389 Vminpu=0.8 Vmaxpu=1.2 model=1 kW=12.4001 kvar=0.9898580894334593 Phases=2

New Load.load_p1ulv5326 conn=wye bus1=p1ulv5326.1.2 kV=0.2080002494301389 Vminpu=0.8 Vmaxpu=1.2 model=1 kW=12.0201 kvar=0.9201976880580982 Phases=2

New Load.load_p1ulv5327 conn=wye bus1=p1ulv5327.1.2 kV=0.2080002494301389 Vminpu=0.8 Vmaxpu=1.2 model=1 kW=5.39005 kvar=1.088842888327837 Phases=2

New Load.load_p1ulv5328 conn=wye bus1=p1ulv5328.1.2 kV=0.2080002494301389 Vminpu=0.8 Vmaxpu=1.2 model=1 kW=6.76007 kvar=1.3691496002359942 Phases=2

New Load.load_p1ulv5329 conn=wye bus1=p1ulv5329.1.2 kV=0.2080002494301389 Vminpu=0.8 Vmaxpu=1.2 model=1 kW=13.5701 kvar=1.2293985450459088 Phases=2

New Load.load_p1ulv5330 conn=wye bus1=p1ulv5330.1.2 kV=0.2080002494301389 Vminpu=0.8 Vmaxpu=1.2 model=1 kW=12.55 kvar=1.0201595584827583 Phases=2

New Load.load_p1ulv5331 conn=wye bus1=p1ulv5331.1.2 kV=0.2080002494301389 Vminpu=0.8 Vmaxpu=1.2 model=1 kW=15.6701 kvar=1.6590055020726662 Phases=2

New Load.load_p1ulv5332 conn=wye bus1=p1ulv5332.1.2 kV=0.2080002494301389 Vminpu=0.8 Vmaxpu=1.2 model=1 kW=13.0901 kvar=1.1409467586725162 Phases=2

New Load.load_p1ulv5333 conn=wye bus1=p1ulv5333.1.2 kV=0.2080002494301389 Vminpu=0.8 Vmaxpu=1.2 model=1 kW=20.9801 kvar=1.2111704107187142 Phases=2

New Load.load_p1ulv5335 conn=wye bus1=p1ulv5335.1.2 kV=0.2080002494301389 Vminpu=0.8 Vmaxpu=1.2 model=1 kW=5.04005 kvar=1.0207856490641993 Phases=2

New Load.load_p1ulv5336 conn=wye bus1=p1ulv5336.1.2 kV=0.2080002494301389 Vminpu=0.8 Vmaxpu=1.2 model=1 kW=12.71 kvar=1.0606687900945995 Phases=2

New Load.load_p1ulv5337 conn=wye bus1=p1ulv5337.1.2 kV=0.2080002494301389 Vminpu=0.8 Vmaxpu=1.2 model=1 kW=12.94 kvar=1.0989433780109366 Phases=2

New Load.load_p1ulv5338 conn=wye bus1=p1ulv5338.1.2 kV=0.2080002494301389 Vminpu=0.8 Vmaxpu=1.2 model=1 kW=12.3601 kvar=0.9894153325398525 Phases=2

New Load.load_p1ulv5352 conn=wye bus1=p1ulv5352.1.2 kV=0.2080002494301389 Vminpu=0.8 Vmaxpu=1.2 model=1 kW=12.0901 kvar=0.9296449774282256 Phases=2

New Load.load_p1ulv5361 conn=wye bus1=p1ulv5361.1.2 kV=0.2080002494301389 Vminpu=0.8 Vmaxpu=1.2 model=1 kW=16.0601 kvar=1.7382004103065338 Phases=2

New Load.load_p1ulv6997 conn=wye bus1=p1ulv6997.1.2 kV=0.2080002494301389 Vminpu=0.8 Vmaxpu=1.2 model=1 kW=12.44 kvar=1.0005321664784275 Phases=2

New Load.load_p1ulv6998 conn=wye bus1=p1ulv6998.1.2 kV=0.2080002494301389 Vminpu=0.8 Vmaxpu=1.2 model=1 kW=12.7301 kvar=1.059267265977166 Phases=2

New Load.load_p1ulv6999 conn=wye bus1=p1ulv6999.1.2 kV=0.2080002494301389 Vminpu=0.8 Vmaxpu=1.2 model=1 kW=16.8401 kvar=1.9014677324929066 Phases=2

New Load.load_p1ulv7000 conn=wye bus1=p1ulv7000.1.2 kV=0.2080002494301389 Vminpu=0.8 Vmaxpu=1.2 model=1 kW=4.880050000000001 kvar=0.9909364168269728 Phases=2

New Load.load_p1ulv7001 conn=wye bus1=p1ulv7001.1.2 kV=0.2080002494301389 Vminpu=0.8 Vmaxpu=1.2 model=1 kW=8.26008 kvar=1.681597884796614 Phases=2

New Load.load_p1ulv7002 conn=wye bus1=p1ulv7002.1.2 kV=0.2080002494301389 Vminpu=0.8 Vmaxpu=1.2 model=1 kW=4.840050000000001 kvar=0.9802786838926555 Phases=2

New Load.load_p1ulv7003 conn=wye bus1=p1ulv7003.1.2 kV=0.2080002494301389 Vminpu=0.8 Vmaxpu=1.2 model=1 kW=12.17 kvar=0.9507348841529898 Phases=2

New Load.load_p1ulv7004 conn=wye bus1=p1ulv7004.1.2 kV=0.2080002494301389 Vminpu=0.8 Vmaxpu=1.2 model=1 kW=14.3301 kvar=1.3904745795455744 Phases=2

New Load.load_p1ulv7005 conn=wye bus1=p1ulv7005.1.2 kV=0.2080002494301389 Vminpu=0.8 Vmaxpu=1.2 model=1 kW=3.77004 kvar=0.7694756260336619 Phases=2

New Load.load_p1ulv7006 conn=wye bus1=p1ulv7006.1.2 kV=0.2080002494301389 Vminpu=0.8 Vmaxpu=1.2 model=1 kW=17.3201 kvar=1.9889122434053916 Phases=2

New Load.load_p1ulv7007 conn=wye bus1=p1ulv7007.1.2 kV=0.2080002494301389 Vminpu=0.8 Vmaxpu=1.2 model=1 kW=17.0801 kvar=1.950329282057806 Phases=2

New Load.load_p1ulv7008 conn=wye bus1=p1ulv7008.1.2 kV=0.2080002494301389 Vminpu=0.8 Vmaxpu=1.2 model=1 kW=13.5101 kvar=1.2203947339300039 Phases=2

New Load.load_p1ulv7009 conn=wye bus1=p1ulv7009.1.2 kV=0.2080002494301389 Vminpu=0.8 Vmaxpu=1.2 model=1 kW=11.71 kvar=0.8592808470538134 Phases=2

New Load.load_p1ulv7010 conn=wye bus1=p1ulv7010.1.2 kV=0.2080002494301389 Vminpu=0.8 Vmaxpu=1.2 model=1 kW=12.0201 kvar=0.9201976880580982 Phases=2

New Load.load_p1ulv7011 conn=wye bus1=p1ulv7011.1.2 kV=0.2080002494301389 Vminpu=0.8 Vmaxpu=1.2 model=1 kW=4.82005 kvar=0.9787528971889325 Phases=2

New Load.load_p1ulv7012 conn=wye bus1=p1ulv7012.1.2 kV=0.2080002494301389 Vminpu=0.8 Vmaxpu=1.2 model=1 kW=13.3801 kvar=1.1909169281329426 Phases=2

New Load.load_p1ulv7013 conn=wye bus1=p1ulv7013.1.2 kV=0.2080002494301389 Vminpu=0.8 Vmaxpu=1.2 model=1 kW=3.95004 kvar=0.8000206635310265 Phases=2

New Load.load_p1ulv7014 conn=wye bus1=p1ulv7014.1.2 kV=0.2080002494301389 Vminpu=0.8 Vmaxpu=1.2 model=1 kW=14.3301 kvar=1.3904745795455744 Phases=2

New Load.load_p1ulv7016 conn=wye bus1=p1ulv7016.1.2 kV=0.2080002494301389 Vminpu=0.8 Vmaxpu=1.2 model=1 kW=13.9401 kvar=1.3110758338857833 Phases=2

New Load.load_p1ulv7017 conn=wye bus1=p1ulv7017.1.2 kV=0.2080002494301389 Vminpu=0.8 Vmaxpu=1.2 model=1 kW=4.75005 kvar=0.95955662038416 Phases=2

New Load.load_p1ulv7018 conn=wye bus1=p1ulv7018.1.2 kV=0.2080002494301389 Vminpu=0.8 Vmaxpu=1.2 model=1 kW=1.38001 kvar=0.28022298226153225 Phases=2

New Load.load_p1ulv7019 conn=wye bus1=p1ulv7019.1.2 kV=0.2080002494301389 Vminpu=0.8 Vmaxpu=1.2 model=1 kW=13.0001 kvar=1.119709405024463 Phases=2

New Load.load_p1ulv7020 conn=wye bus1=p1ulv7020.1.2 kV=0.2080002494301389 Vminpu=0.8 Vmaxpu=1.2 model=1 kW=3.59004 kvar=0.7308650364566972 Phases=2

New Load.load_p1ulv7021 conn=wye bus1=p1ulv7021.1.2 kV=0.2080002494301389 Vminpu=0.8 Vmaxpu=1.2 model=1 kW=12.33 kvar=0.9807834837952725 Phases=2

New Load.load_p1ulv7022 conn=wye bus1=p1ulv7022.1.2 kV=0.2080002494301389 Vminpu=0.8 Vmaxpu=1.2 model=1 kW=3.3000300000000005 kvar=0.6700996718520332 Phases=2

New Load.load_p1ulv7024 conn=wye bus1=p1ulv7024.1.2 kV=0.2080002494301389 Vminpu=0.8 Vmaxpu=1.2 model=1 kW=12.76 kvar=1.070847855459563 Phases=2

New Load.load_p1ulv7025 conn=wye bus1=p1ulv7025.1.2 kV=0.2080002494301389 Vminpu=0.8 Vmaxpu=1.2 model=1 kW=11.27 kvar=0.7694756260336619 Phases=2

New Load.load_p1ulv7026 conn=wye bus1=p1ulv7026.1.2 kV=0.2080002494301389 Vminpu=0.8 Vmaxpu=1.2 model=1 kW=3.23003 kvar=0.6507979259297981 Phases=2

New Load.load_p1ulv7027 conn=wye bus1=p1ulv7027.1.2 kV=0.2080002494301389 Vminpu=0.8 Vmaxpu=1.2 model=1 kW=13.6201 kvar=1.239525286338795 Phases=2

New Load.load_p1ulv7028 conn=wye bus1=p1ulv7028.1.2 kV=0.2080002494301389 Vminpu=0.8 Vmaxpu=1.2 model=1 kW=11.44 kvar=0.8000592452444024 Phases=2

New Load.load_p1ulv7029 conn=wye bus1=p1ulv7029.1.2 kV=0.2080002494301389 Vminpu=0.8 Vmaxpu=1.2 model=1 kW=10.3201 kvar=2.1009794494592713 Phases=2

New Load.load_p1ulv7030 conn=wye bus1=p1ulv7030.1.2 kV=0.2080002494301389 Vminpu=0.8 Vmaxpu=1.2 model=1 kW=11.7701 kvar=2.3900207415282937 Phases=2

New Load.load_p1ulv7031 conn=wye bus1=p1ulv7031.1.2 kV=0.2080002494301389 Vminpu=0.8 Vmaxpu=1.2 model=1 kW=7.80008 kvar=1.579787844476281 Phases=2

New Load.load_p1ulv7032 conn=wye bus1=p1ulv7032.1.2 kV=0.2080002494301389 Vminpu=0.8 Vmaxpu=1.2 model=1 kW=12.7001 kvar=1.061344635376904 Phases=2

New Load.load_p1ulv7033 conn=wye bus1=p1ulv7033.1.2 kV=0.2080002494301389 Vminpu=0.8 Vmaxpu=1.2 model=1 kW=4.80005 kvar=0.9797035253585847 Phases=2

New Load.load_p1ulv7034 conn=wye bus1=p1ulv7034.1.2 kV=0.2080002494301389 Vminpu=0.8 Vmaxpu=1.2 model=1 kW=13.8201 kvar=1.2800322515103388 Phases=2

New Load.load_p1ulv7035 conn=wye bus1=p1ulv7035.1.2 kV=0.2080002494301389 Vminpu=0.8 Vmaxpu=1.2 model=1 kW=14.8801 kvar=1.498587129585196 Phases=2

New Load.load_p1ulv7037 conn=wye bus1=p1ulv7037.1.2 kV=0.2080002494301389 Vminpu=0.8 Vmaxpu=1.2 model=1 kW=16.8801 kvar=1.899794894679736 Phases=2

New Load.load_p1ulv7291 conn=wye bus1=p1ulv7291.1.2 kV=0.2080002494301389 Vminpu=0.8 Vmaxpu=1.2 model=1 kW=1.57002 kvar=0.3196267240860112 Phases=2

New Load.load_p1ulv7292 conn=wye bus1=p1ulv7292.1.2 kV=0.2080002494301389 Vminpu=0.8 Vmaxpu=1.2 model=1 kW=12.92 kvar=1.1005880935693348 Phases=2

New Load.load_p1ulv7295 conn=wye bus1=p1ulv7295.1.2 kV=0.2080002494301389 Vminpu=0.8 Vmaxpu=1.2 model=1 kW=10.78 kvar=0.6694632252334703 Phases=2

New Load.load_p1ulv8689 conn=wye bus1=p1ulv8689.1.2 kV=0.2080002494301389 Vminpu=0.8 Vmaxpu=1.2 model=1 kW=13.1301 kvar=1.1402832216685126 Phases=2

New Load.load_p1ulv8690 conn=wye bus1=p1ulv8690.1.2.3 kV=0.48 Vminpu=0.8 Vmaxpu=1.2 model=1 kW=48.850500000000004 kvar=9.919517101301427 Phases=3

New Load.load_p1ulv8692 conn=wye bus1=p1ulv8692.1.2 kV=0.2080002494301389 Vminpu=0.8 Vmaxpu=1.2 model=1 kW=11.91 kvar=0.890871270441145 Phases=2

New Load.load_p1ulv8694 conn=wye bus1=p1ulv8694.1.2 kV=0.2080002494301389 Vminpu=0.8 Vmaxpu=1.2 model=1 kW=11.1 kvar=0.7291334744808246 Phases=2

New Load.load_p1ulv8698 conn=wye bus1=p1ulv8698.1.2 kV=0.2080002494301389 Vminpu=0.8 Vmaxpu=1.2 model=1 kW=11.64 kvar=0.8406709773712032 Phases=2

New Load.load_p1ulv8702 conn=wye bus1=p1ulv8702.1.2 kV=0.2080002494301389 Vminpu=0.8 Vmaxpu=1.2 model=1 kW=7.27007 kvar=1.4800503547572565 Phases=2

New Load.load_p1ulv8704 conn=wye bus1=p1ulv8704.1.2 kV=0.2080002494301389 Vminpu=0.8 Vmaxpu=1.2 model=1 kW=13.4601 kvar=1.2102418008983036 Phases=2

New Load.load_p1ulv8705 conn=wye bus1=p1ulv8705.1.2 kV=0.2080002494301389 Vminpu=0.8 Vmaxpu=1.2 model=1 kW=12.33 kvar=0.9807834837952725 Phases=2

New Load.load_p1ulv8706 conn=wye bus1=p1ulv8706.1.2 kV=0.2080002494301389 Vminpu=0.8 Vmaxpu=1.2 model=1 kW=11.41 kvar=0.7898663736101474 Phases=2

New Load.load_p1ulv8707 conn=wye bus1=p1ulv8707.1.2 kV=0.2080002494301389 Vminpu=0.8 Vmaxpu=1.2 model=1 kW=11.99 kvar=0.9093894694941951 Phases=2

New Load.load_p1ulv8708 conn=wye bus1=p1ulv8708.1.2 kV=0.2080002494301389 Vminpu=0.8 Vmaxpu=1.2 model=1 kW=12.33 kvar=0.9807834837952725 Phases=2

New Load.load_p1ulv8709 conn=wye bus1=p1ulv8709.1.2 kV=0.2080002494301389 Vminpu=0.8 Vmaxpu=1.2 model=1 kW=12.6501 kvar=1.0511394966246144 Phases=2

New Load.load_p1ulv8710 conn=wye bus1=p1ulv8710.1.2 kV=0.2080002494301389 Vminpu=0.8 Vmaxpu=1.2 model=1 kW=4.77005 kvar=0.9710930148829175 Phases=2

New Load.load_p1ulv8711 conn=wye bus1=p1ulv8711.1.2 kV=0.2080002494301389 Vminpu=0.8 Vmaxpu=1.2 model=1 kW=23.7601 kvar=1.7788121424333347 Phases=2

New Load.load_p1ulv8712 conn=wye bus1=p1ulv8712.1.2 kV=0.2080002494301389 Vminpu=0.8 Vmaxpu=1.2 model=1 kW=2.15002 kvar=0.43994369930755917 Phases=2

New Load.load_p1ulv8713 conn=wye bus1=p1ulv8713.1.2 kV=0.2080002494301389 Vminpu=0.8 Vmaxpu=1.2 model=1 kW=12.93 kvar=1.0997742311487098 Phases=2

New Load.load_p1ulv8714 conn=wye bus1=p1ulv8714.1.2 kV=0.2080002494301389 Vminpu=0.8 Vmaxpu=1.2 model=1 kW=11.69 kvar=0.8508239104029033 Phases=2

New Load.load_p1ulv8715 conn=wye bus1=p1ulv8715.1.2 kV=0.2080002494301389 Vminpu=0.8 Vmaxpu=1.2 model=1 kW=13.6801 kvar=1.2484326454187498 Phases=2

New Load.load_p1ulv8716 conn=wye bus1=p1ulv8716.1.2 kV=0.2080002494301389 Vminpu=0.8 Vmaxpu=1.2 model=1 kW=13.5801 kvar=1.231423893304486 Phases=2

New Load.load_p1ulv8717 conn=wye bus1=p1ulv8717.1.2 kV=0.2080002494301389 Vminpu=0.8 Vmaxpu=1.2 model=1 kW=3.54004 kvar=0.7206859710917335 Phases=2

New Load.load_p1ulv8718 conn=wye bus1=p1ulv8718.1.2 kV=0.2080002494301389 Vminpu=0.8 Vmaxpu=1.2 model=1 kW=4.630050000000001 kvar=0.9401717516684716 Phases=2

New Load.load_p1ulv8719 conn=wye bus1=p1ulv8719.1.2 kV=0.2080002494301389 Vminpu=0.8 Vmaxpu=1.2 model=1 kW=11.18 kvar=0.7491873541136322 Phases=2

New Load.load_p1ulv8720 conn=wye bus1=p1ulv8720.1.2 kV=0.2080002494301389 Vminpu=0.8 Vmaxpu=1.2 model=1 kW=11.94 kvar=0.8992627282013091 Phases=2

New Load.load_p1ulv8721 conn=wye bus1=p1ulv8721.1.2 kV=0.2080002494301389 Vminpu=0.8 Vmaxpu=1.2 model=1 kW=3.70004 kvar=0.7493869570665965 Phases=2

New Load.load_p1ulv8722 conn=wye bus1=p1ulv8722.1.2 kV=0.2080002494301389 Vminpu=0.8 Vmaxpu=1.2 model=1 kW=12.3 kvar=0.9696571100672596 Phases=2

New Load.load_p1ulv8723 conn=wye bus1=p1ulv8723.1.2 kV=0.2080002494301389 Vminpu=0.8 Vmaxpu=1.2 model=1 kW=4.68005 kvar=0.9503246847001716 Phases=2

New Load.load_p1ulv8724 conn=wye bus1=p1ulv8724.1.2 kV=0.2080002494301389 Vminpu=0.8 Vmaxpu=1.2 model=1 kW=13.0401 kvar=1.1191463774750727 Phases=2

New Load.load_p1ulv8725 conn=wye bus1=p1ulv8725.1.2 kV=0.2080002494301389 Vminpu=0.8 Vmaxpu=1.2 model=1 kW=13.2801 kvar=1.1706634455471703 Phases=2

New Load.load_p1ulv8726 conn=wye bus1=p1ulv8726.1.2 kV=0.2080002494301389 Vminpu=0.8 Vmaxpu=1.2 model=1 kW=21.0701 kvar=1.2293985450459088 Phases=2

New Load.load_p1ulv8727 conn=wye bus1=p1ulv8727.1.2 kV=0.2080002494301389 Vminpu=0.8 Vmaxpu=1.2 model=1 kW=12.9901 kvar=1.1090438676940364 Phases=2

New Load.load_p1ulv8728 conn=wye bus1=p1ulv8728.1.2 kV=0.2080002494301389 Vminpu=0.8 Vmaxpu=1.2 model=1 kW=11.48 kvar=0.8102617463034154 Phases=2

New Load.load_p1ulv8729 conn=wye bus1=p1ulv8729.1.2 kV=0.2080002494301389 Vminpu=0.8 Vmaxpu=1.2 model=1 kW=4.25004 kvar=0.8607811112883423 Phases=2

New Load.load_p1ulv8730 conn=wye bus1=p1ulv8730.1.2 kV=0.2080002494301389 Vminpu=0.8 Vmaxpu=1.2 model=1 kW=3.49003 kvar=0.7105048699136965 Phases=2

New Load.load_p1ulv8731 conn=wye bus1=p1ulv8731.1.2 kV=0.2080002494301389 Vminpu=0.8 Vmaxpu=1.2 model=1 kW=11.2 kvar=0.7493869570665965 Phases=2

New Load.load_p1ulv8732 conn=wye bus1=p1ulv8732.1.2 kV=0.2080002494301389 Vminpu=0.8 Vmaxpu=1.2 model=1 kW=10.42 kvar=0.5898746577868357 Phases=2

New Load.load_p1ulv8733 conn=wye bus1=p1ulv8733.1.2 kV=0.2080002494301389 Vminpu=0.8 Vmaxpu=1.2 model=1 kW=11.17 kvar=0.749065348529082 Phases=2

New Load.load_p1ulv8734 conn=wye bus1=p1ulv8734.1.2 kV=0.2080002494301389 Vminpu=0.8 Vmaxpu=1.2 model=1 kW=10.78 kvar=0.6694632252334703 Phases=2

New Load.load_p1ulv8735 conn=wye bus1=p1ulv8735.1.2 kV=0.2080002494301389 Vminpu=0.8 Vmaxpu=1.2 model=1 kW=9.84 kvar=0.48003687420401825 Phases=2

New Load.load_p1ulv8736 conn=wye bus1=p1ulv8736.1.2 kV=0.2080002494301389 Vminpu=0.8 Vmaxpu=1.2 model=1 kW=4.91005 kvar=0.9995943979048163 Phases=2

New Load.load_p1ulv8737 conn=wye bus1=p1ulv8737.1.2 kV=0.2080002494301389 Vminpu=0.8 Vmaxpu=1.2 model=1 kW=4.02004 kvar=0.8205013197951115 Phases=2

New Load.load_p1ulv8738 conn=wye bus1=p1ulv8738.1.2 kV=0.2080002494301389 Vminpu=0.8 Vmaxpu=1.2 model=1 kW=2.98003 kvar=0.6097828960881785 Phases=2

New Load.load_p1ulv8739 conn=wye bus1=p1ulv8739.1.2 kV=0.2080002494301389 Vminpu=0.8 Vmaxpu=1.2 model=1 kW=6.68007 kvar=1.359937383450683 Phases=2

New Load.load_p1ulv8740 conn=wye bus1=p1ulv8740.1.2 kV=0.2080002494301389 Vminpu=0.8 Vmaxpu=1.2 model=1 kW=11.78 kvar=0.8690991898599637 Phases=2

New Load.load_p1ulv8741 conn=wye bus1=p1ulv8741.1.2 kV=0.2080002494301389 Vminpu=0.8 Vmaxpu=1.2 model=1 kW=12.2001 kvar=0.9494561307010603 Phases=2

New Load.load_p1ulv8742 conn=wye bus1=p1ulv8742.1.2 kV=0.2080002494301389 Vminpu=0.8 Vmaxpu=1.2 model=1 kW=11.86 kvar=0.8807707807580453 Phases=2

New Load.load_p1ulv8743 conn=wye bus1=p1ulv8743.1.2 kV=0.2080002494301389 Vminpu=0.8 Vmaxpu=1.2 model=1 kW=13.8901 kvar=1.3008967685208197 Phases=2

New Load.load_p1ulv8744 conn=wye bus1=p1ulv8744.1.2 kV=0.2080002494301389 Vminpu=0.8 Vmaxpu=1.2 model=1 kW=5.36005 kvar=1.091205986189491 Phases=2

New Load.load_p1ulv8745 conn=wye bus1=p1ulv8745.1.2 kV=0.2080002494301389 Vminpu=0.8 Vmaxpu=1.2 model=1 kW=3.09003 kvar=0.6306836979747686 Phases=2

New Load.load_p1ulv8746 conn=wye bus1=p1ulv8746.1.2 kV=0.2080002494301389 Vminpu=0.8 Vmaxpu=1.2 model=1 kW=11.52 kvar=0.8205013197951115 Phases=2

New Load.load_p1ulv8747 conn=wye bus1=p1ulv8747.1.2 kV=0.2080002494301389 Vminpu=0.8 Vmaxpu=1.2 model=1 kW=2.48002 kvar=0.499683245129122 Phases=2

New Load.load_p1ulv8748 conn=wye bus1=p1ulv8748.1.2 kV=0.2080002494301389 Vminpu=0.8 Vmaxpu=1.2 model=1 kW=12.7901 kvar=1.0686419089616372 Phases=2

New Load.load_p1ulv8749 conn=wye bus1=p1ulv8749.1.2 kV=0.2080002494301389 Vminpu=0.8 Vmaxpu=1.2 model=1 kW=3.41003 kvar=0.6906498322195993 Phases=2

New Load.load_p1ulv8750 conn=wye bus1=p1ulv8750.1.2 kV=0.2080002494301389 Vminpu=0.8 Vmaxpu=1.2 model=1 kW=12.3201 kvar=0.9787528971889325 Phases=2

New Load.load_p1ulv8751 conn=wye bus1=p1ulv8751.1.2 kV=0.2080002494301389 Vminpu=0.8 Vmaxpu=1.2 model=1 kW=4.94005 kvar=1.0005321664784275 Phases=2

New Load.load_p1ulv8752 conn=wye bus1=p1ulv8752.1.2 kV=0.2080002494301389 Vminpu=0.8 Vmaxpu=1.2 model=1 kW=11.29 kvar=0.7696004461493017 Phases=2

New Load.load_p1ulv8753 conn=wye bus1=p1ulv8753.1.2 kV=0.2080002494301389 Vminpu=0.8 Vmaxpu=1.2 model=1 kW=3.9400400000000007 kvar=0.8000592452444024 Phases=2

New Load.load_p1ulv8754 conn=wye bus1=p1ulv8754.1.2 kV=0.2080002494301389 Vminpu=0.8 Vmaxpu=1.2 model=1 kW=4.87005 kvar=0.9889058302206326 Phases=2

New Load.load_p1ulv8755 conn=wye bus1=p1ulv8755.1.2 kV=0.2080002494301389 Vminpu=0.8 Vmaxpu=1.2 model=1 kW=12.0201 kvar=0.9201976880580982 Phases=2

New Load.load_p1ulv8756 conn=wye bus1=p1ulv8756.1.2 kV=0.2080002494301389 Vminpu=0.8 Vmaxpu=1.2 model=1 kW=12.8401 kvar=1.078742398644737 Phases=2

New Load.load_p1ulv8757 conn=wye bus1=p1ulv8757.1.2 kV=0.2080002494301389 Vminpu=0.8 Vmaxpu=1.2 model=1 kW=4.39004 kvar=0.8891359869084231 Phases=2

New Load.load_p1ulv8758 conn=wye bus1=p1ulv8758.1.2 kV=0.2080002494301389 Vminpu=0.8 Vmaxpu=1.2 model=1 kW=5.30005 kvar=1.0789911077515342 Phases=2

New Load.load_p1ulv8759 conn=wye bus1=p1ulv8759.1.2 kV=0.2080002494301389 Vminpu=0.8 Vmaxpu=1.2 model=1 kW=4.70005 kvar=0.9494561307010603 Phases=2

New Load.load_p1ulv8760 conn=wye bus1=p1ulv8760.1.2 kV=0.2080002494301389 Vminpu=0.8 Vmaxpu=1.2 model=1 kW=11.82 kvar=0.8794793907851697 Phases=2

New Load.load_p1ulv8761 conn=wye bus1=p1ulv8761.1.2 kV=0.2080002494301389 Vminpu=0.8 Vmaxpu=1.2 model=1 kW=11.94 kvar=0.8992627282013091 Phases=2

New Load.load_p1ulv8762 conn=wye bus1=p1ulv8762.1.2 kV=0.2080002494301389 Vminpu=0.8 Vmaxpu=1.2 model=1 kW=4.93005 kvar=1.0010893498586726 Phases=2

New Load.load_p1ulv8763 conn=wye bus1=p1ulv8763.1.2 kV=0.2080002494301389 Vminpu=0.8 Vmaxpu=1.2 model=1 kW=1.93002 kvar=0.38988294196352385 Phases=2

New Load.load_p1ulv8764 conn=wye bus1=p1ulv8764.1.2 kV=0.2080002494301389 Vminpu=0.8 Vmaxpu=1.2 model=1 kW=6.04006 kvar=1.2296433109660727 Phases=2

New Load.load_p1ulv8765 conn=wye bus1=p1ulv8765.1.2 kV=0.2080002494301389 Vminpu=0.8 Vmaxpu=1.2 model=1 kW=11.78 kvar=0.8690991898599637 Phases=2

New Load.load_p1ulv9422 conn=wye bus1=p1ulv9422.1.2 kV=0.2080002494301389 Vminpu=0.8 Vmaxpu=1.2 model=1 kW=11.56 kvar=0.8201678426594468 Phases=2

New Load.load_p1ulv9423 conn=wye bus1=p1ulv9423.1.2 kV=0.2080002494301389 Vminpu=0.8 Vmaxpu=1.2 model=1 kW=22.1001 kvar=1.4417307046076748 Phases=2

New Load.load_p1ulv9425 conn=wye bus1=p1ulv9425.1.2 kV=0.2080002494301389 Vminpu=0.8 Vmaxpu=1.2 model=1 kW=2.18002 kvar=0.44038539037902263 Phases=2

New Load.load_p1ulv9427 conn=wye bus1=p1ulv9427.1.2 kV=0.2080002494301389 Vminpu=0.8 Vmaxpu=1.2 model=1 kW=11.81 kvar=0.8706702910749454 Phases=2

New Load.load_p1ulv9439 conn=wye bus1=p1ulv9439.1.2 kV=0.2080002494301389 Vminpu=0.8 Vmaxpu=1.2 model=1 kW=9.28 kvar=0.35958147291422454 Phases=2

New Load.load_p1ulv9442 conn=wye bus1=p1ulv9442.1.2 kV=0.2080002494301389 Vminpu=0.8 Vmaxpu=1.2 model=1 kW=4.2400400000000005 kvar=0.8609768434346036 Phases=2

New Load.load_p1ulv9496 conn=wye bus1=p1ulv9496.1.2 kV=0.2080002494301389 Vminpu=0.8 Vmaxpu=1.2 model=1 kW=3.60004 kvar=0.7291334744808246 Phases=2

New Load.load_p1ulv9497 conn=wye bus1=p1ulv9497.1.2 kV=0.2080002494301389 Vminpu=0.8 Vmaxpu=1.2 model=1 kW=6.87007 kvar=1.3914284310803433 Phases=2

New Load.load_p1ulv9498 conn=wye bus1=p1ulv9498.1.2 kV=0.2080002494301389 Vminpu=0.8 Vmaxpu=1.2 model=1 kW=10.28 kvar=0.5601303263507202 Phases=2

New Load.load_p1ulv9499 conn=wye bus1=p1ulv9499.1.2 kV=0.2080002494301389 Vminpu=0.8 Vmaxpu=1.2 model=1 kW=4.32004 kvar=0.8794793907851697 Phases=2

New Load.load_p1ulv9500 conn=wye bus1=p1ulv9500.1.2 kV=0.2080002494301389 Vminpu=0.8 Vmaxpu=1.2 model=1 kW=3.80004 kvar=0.7696404396523686 Phases=2

New Load.load_p1ulv9501 conn=wye bus1=p1ulv9501.1.2 kV=0.2080002494301389 Vminpu=0.8 Vmaxpu=1.2 model=1 kW=4.81005 kvar=0.9792362671748885 Phases=2

New Load.load_p1ulv9502 conn=wye bus1=p1ulv9502.1.2 kV=0.2080002494301389 Vminpu=0.8 Vmaxpu=1.2 model=1 kW=10.47 kvar=0.5999751474699353 Phases=2

New Load.load_p1ulv9503 conn=wye bus1=p1ulv9503.1.2 kV=0.2080002494301389 Vminpu=0.8 Vmaxpu=1.2 model=1 kW=8.88 kvar=0.28022298226153225 Phases=2

New Load.load_p1ulv9504 conn=wye bus1=p1ulv9504.1.2 kV=0.2080002494301389 Vminpu=0.8 Vmaxpu=1.2 model=1 kW=3.51004 kvar=0.7109053401536299 Phases=2

New Load.load_p1ulv9505 conn=wye bus1=p1ulv9505.1.2 kV=0.2080002494301389 Vminpu=0.8 Vmaxpu=1.2 model=1 kW=12.28 kvar=0.9706305507635722 Phases=2

New Load.load_p1ulv9506 conn=wye bus1=p1ulv9506.1.2 kV=0.2080002494301389 Vminpu=0.8 Vmaxpu=1.2 model=1 kW=3.04003 kvar=0.6204785592224786 Phases=2

New Load.load_p1ulv9507 conn=wye bus1=p1ulv9507.1.2 kV=0.2080002494301389 Vminpu=0.8 Vmaxpu=1.2 model=1 kW=11.76 kvar=0.8694859858061031 Phases=2

New Load.load_p1ulv9508 conn=wye bus1=p1ulv9508.1.2 kV=0.2080002494301389 Vminpu=0.8 Vmaxpu=1.2 model=1 kW=3.65004 kvar=0.7392602157737106 Phases=2

New Load.load_p1ulv9509 conn=wye bus1=p1ulv9509.1.2 kV=0.2080002494301389 Vminpu=0.8 Vmaxpu=1.2 model=1 kW=1.38001 kvar=0.28022298226153225 Phases=2

New Load.load_p1ulv9986 conn=wye bus1=p1ulv9986.1.2 kV=0.2080002494301389 Vminpu=0.8 Vmaxpu=1.2 model=1 kW=5.380050000000001 kvar=1.0896474898558242 Phases=2

New Load.load_p1ulv9987 conn=wye bus1=p1ulv9987.1.2 kV=0.2080002494301389 Vminpu=0.8 Vmaxpu=1.2 model=1 kW=14.0201 kvar=1.3205412420301414 Phases=2

New Load.load_p1ulv9989 conn=wye bus1=p1ulv9989.1.2 kV=0.2080002494301389 Vminpu=0.8 Vmaxpu=1.2 model=1 kW=1.49001 kvar=0.3002125112196043 Phases=2

New Load.load_p1ulv9990 conn=wye bus1=p1ulv9990.1.2 kV=0.2080002494301389 Vminpu=0.8 Vmaxpu=1.2 model=1 kW=1.38001 kvar=0.28022298226153225 Phases=2

New Load.load_p1ulv10928 conn=wye bus1=p1ulv10928.1.2 kV=0.2080002494301389 Vminpu=0.8 Vmaxpu=1.2 model=1 kW=3.13003 kvar=0.6404763570309296 Phases=2

New Load.load_p1ulv10933 conn=wye bus1=p1ulv10928.1.2 kV=0.2080002494301389 Vminpu=0.8 Vmaxpu=1.2 model=1 kW=1.38001 kvar=0.28022298226153225 Phases=2

New Load.load_p1ulv10940 conn=wye bus1=p1ulv10940.1.2 kV=0.2080002494301389 Vminpu=0.8 Vmaxpu=1.2 model=1 kW=11.7101 kvar=2.3778372218902537 Phases=2

New Load.load_p1ulv10971 conn=wye bus1=p1ulv10971.1.2 kV=0.2080002494301389 Vminpu=0.8 Vmaxpu=1.2 model=1 kW=3.9400400000000007 kvar=0.8000592452444024 Phases=2

New Load.load_p1ulv11463 conn=wye bus1=p1ulv11463.1.2.3 kV=0.48 Vminpu=0.8 Vmaxpu=1.2 model=1 kW=105.10100000000001 kvar=21.341668291294486 Phases=3

New Load.load_p1ulv11464 conn=wye bus1=p1ulv11464.1.2 kV=0.2080002494301389 Vminpu=0.8 Vmaxpu=1.2 model=1 kW=5.090050000000001 kvar=1.0309123903570856 Phases=2

New Load.load_p1ulv11465 conn=wye bus1=p1ulv11465.1.2 kV=0.2080002494301389 Vminpu=0.8 Vmaxpu=1.2 model=1 kW=3.68004 kvar=0.7491873541136322 Phases=2

New Load.load_p1ulv11466 conn=wye bus1=p1ulv11466.1.2 kV=0.2080002494301389 Vminpu=0.8 Vmaxpu=1.2 model=1 kW=5.420050000000001 kvar=1.1005880935693348 Phases=2

New Load.load_p1ulv11467 conn=wye bus1=p1ulv11467.1.2 kV=0.2080002494301389 Vminpu=0.8 Vmaxpu=1.2 model=1 kW=4.10004 kvar=0.8304008874096844 Phases=2

New Load.load_p1ulv11468 conn=wye bus1=p1ulv11468.1.2 kV=0.2080002494301389 Vminpu=0.8 Vmaxpu=1.2 model=1 kW=3.77004 kvar=0.7694756260336619 Phases=2

New Load.load_p1ulv11469 conn=wye bus1=p1ulv11469.1.2 kV=0.2080002494301389 Vminpu=0.8 Vmaxpu=1.2 model=1 kW=4.02004 kvar=0.8205013197951115 Phases=2

New Load.load_p1ulv11470 conn=wye bus1=p1ulv11470.1.2 kV=0.2080002494301389 Vminpu=0.8 Vmaxpu=1.2 model=1 kW=9.43009 kvar=1.9099216359726225 Phases=2

New Load.load_p1ulv11471 conn=wye bus1=p1ulv11471.1.2 kV=0.2080002494301389 Vminpu=0.8 Vmaxpu=1.2 model=1 kW=5.48005 kvar=1.109900972441596 Phases=2

New Load.load_p1ulv11472 conn=wye bus1=p1ulv11472.1.2 kV=0.2080002494301389 Vminpu=0.8 Vmaxpu=1.2 model=1 kW=4.10004 kvar=0.8304008874096844 Phases=2

New Load.load_p1ulv11473 conn=wye bus1=p1ulv11473.1.2 kV=0.2080002494301389 Vminpu=0.8 Vmaxpu=1.2 model=1 kW=4.54005 kvar=0.9195182361353397 Phases=2

New Load.load_p1ulv11474 conn=wye bus1=p1ulv11474.1.2 kV=0.2080002494301389 Vminpu=0.8 Vmaxpu=1.2 model=1 kW=3.17003 kvar=0.6403771062023346 Phases=2

New Load.load_p1ulv11475 conn=wye bus1=p1ulv11475.1.2 kV=0.2080002494301389 Vminpu=0.8 Vmaxpu=1.2 model=1 kW=3.55004 kvar=0.7208663675971405 Phases=2

New Load.load_p1ulv11476 conn=wye bus1=p1ulv11476.1.2 kV=0.2080002494301389 Vminpu=0.8 Vmaxpu=1.2 model=1 kW=3.20003 kvar=0.6497938057886328 Phases=2

New Load.load_p1ulv11477 conn=wye bus1=p1ulv11477.1.2 kV=0.2080002494301389 Vminpu=0.8 Vmaxpu=1.2 model=1 kW=4.87005 kvar=0.9889058302206326 Phases=2

New Load.load_p1ulv11478 conn=wye bus1=p1ulv11478.1.2 kV=0.2080002494301389 Vminpu=0.8 Vmaxpu=1.2 model=1 kW=3.81004 kvar=0.769665394243948 Phases=2

New Load.load_p1ulv11479 conn=wye bus1=p1ulv11479.1.2 kV=0.2080002494301389 Vminpu=0.8 Vmaxpu=1.2 model=1 kW=4.200040000000001 kvar=0.8506543699954566 Phases=2

New Load.load_p1ulv11480 conn=wye bus1=p1ulv11480.1.2 kV=0.2080002494301389 Vminpu=0.8 Vmaxpu=1.2 model=1 kW=5.31005 kvar=1.0810269208245273 Phases=2

New Load.load_p1ulv11481 conn=wye bus1=p1ulv11481.1.2 kV=0.2080002494301389 Vminpu=0.8 Vmaxpu=1.2 model=1 kW=3.68004 kvar=0.7491873541136322 Phases=2

New Load.load_p1ulv11482 conn=wye bus1=p1ulv11482.1.2 kV=0.2080002494301389 Vminpu=0.8 Vmaxpu=1.2 model=1 kW=3.45003 kvar=0.7005584709471337 Phases=2

New Load.load_p1ulv11483 conn=wye bus1=p1ulv11483.1.2 kV=0.2080002494301389 Vminpu=0.8 Vmaxpu=1.2 model=1 kW=3.20003 kvar=0.6497938057886328 Phases=2

New Load.load_p1ulv11484 conn=wye bus1=p1ulv11484.1.2 kV=0.2080002494301389 Vminpu=0.8 Vmaxpu=1.2 model=1 kW=4.74005 kvar=0.9600252013068835 Phases=2

New Load.load_p1ulv11485 conn=wye bus1=p1ulv11485.1.2 kV=0.2080002494301389 Vminpu=0.8 Vmaxpu=1.2 model=1 kW=4.14004 kvar=0.8406709773712032 Phases=2

New Load.load_p1ulv11486 conn=wye bus1=p1ulv11486.1.2 kV=0.2080002494301389 Vminpu=0.8 Vmaxpu=1.2 model=1 kW=6.15006 kvar=1.2488229464187643 Phases=2

New Load.load_p1ulv11487 conn=wye bus1=p1ulv11487.1.2 kV=0.2080002494301389 Vminpu=0.8 Vmaxpu=1.2 model=1 kW=4.98005 kvar=1.011242282890373 Phases=2

New Load.load_p1ulv11488 conn=wye bus1=p1ulv11488.1.2 kV=0.2080002494301389 Vminpu=0.8 Vmaxpu=1.2 model=1 kW=4.35004 kvar=0.8810345938741143 Phases=2

New Load.load_p1ulv12555 conn=wye bus1=p1ulv12555.1.2 kV=0.2080002494301389 Vminpu=0.8 Vmaxpu=1.2 model=1 kW=2.74003 kvar=0.5606733585797765 Phases=2

New Load.load_p1ulv12556 conn=wye bus1=p1ulv12556.1.2 kV=0.2080002494301389 Vminpu=0.8 Vmaxpu=1.2 model=1 kW=4.28004 kvar=0.8690991898599637 Phases=2

New Load.load_p1ulv12904 conn=wye bus1=p1ulv12904.1.2 kV=0.2080002494301389 Vminpu=0.8 Vmaxpu=1.2 model=1 kW=3.08003 kvar=0.6302452033833459 Phases=2

New Load.load_p1ulv12906 conn=wye bus1=p1ulv12906.1.2 kV=0.2080002494301389 Vminpu=0.8 Vmaxpu=1.2 model=1 kW=3.46003 kvar=0.7007765735124853 Phases=2

New Load.load_p1ulv12926 conn=wye bus1=p1ulv12926.1.2 kV=0.2080002494301389 Vminpu=0.8 Vmaxpu=1.2 model=1 kW=4.200040000000001 kvar=0.8506543699954566 Phases=2

New Load.load_p1ulv12947 conn=wye bus1=p1ulv12947.1.2 kV=0.2080002494301389 Vminpu=0.8 Vmaxpu=1.2 model=1 kW=4.56005 kvar=0.9307188593475932 Phases=2

New Load.load_p1ulv12951 conn=wye bus1=p1ulv12951.1.2 kV=0.2080002494301389 Vminpu=0.8 Vmaxpu=1.2 model=1 kW=4.27004 kvar=0.869300325420206 Phases=2

New Load.load_p1ulv12953 conn=wye bus1=p1ulv12953.1.2 kV=0.2080002494301389 Vminpu=0.8 Vmaxpu=1.2 model=1 kW=6.740070000000001 kvar=1.3686295867794334 Phases=2

New Load.load_p1ulv12955 conn=wye bus1=p1ulv12955.1.2 kV=0.2080002494301389 Vminpu=0.8 Vmaxpu=1.2 model=1 kW=1.82002 kvar=0.3695708235271005 Phases=2

New Load.load_p1ulv12968 conn=wye bus1=p1ulv12968.1.2 kV=0.2080002494301389 Vminpu=0.8 Vmaxpu=1.2 model=1 kW=5.54006 kvar=1.1191463774750727 Phases=2

New Load.load_p1ulv12972 conn=wye bus1=p1ulv12972.1.2 kV=0.2080002494301389 Vminpu=0.8 Vmaxpu=1.2 model=1 kW=5.08005 kvar=1.0288870420985081 Phases=2

New Load.load_p1ulv12973 conn=wye bus1=p1ulv12973.1.2 kV=0.2080002494301389 Vminpu=0.8 Vmaxpu=1.2 model=1 kW=2.84003 kvar=0.5796580042133189 Phases=2

New Load.load_p1ulv12994 conn=wye bus1=p1ulv12994.1.2 kV=0.2080002494301389 Vminpu=0.8 Vmaxpu=1.2 model=1 kW=4.06004 kvar=0.8201678426594468 Phases=2

New Load.load_p1ulv13000 conn=wye bus1=p1ulv13000.1.2 kV=0.2080002494301389 Vminpu=0.8 Vmaxpu=1.2 model=1 kW=4.43004 kvar=0.8995579889550643 Phases=2

New Load.load_p1ulv13013 conn=wye bus1=p1ulv13013.1.2 kV=0.2080002494301389 Vminpu=0.8 Vmaxpu=1.2 model=1 kW=4.27004 kvar=0.869300325420206 Phases=2

New Load.load_p1ulv13035 conn=wye bus1=p1ulv13035.1.2 kV=0.2080002494301389 Vminpu=0.8 Vmaxpu=1.2 model=1 kW=4.76005 kvar=0.9690572018099246 Phases=2

New Load.load_p1ulv13037 conn=wye bus1=p1ulv13037.1.2 kV=0.2080002494301389 Vminpu=0.8 Vmaxpu=1.2 model=1 kW=5.28005 kvar=1.069394007270052 Phases=2

New Load.load_p1ulv13056 conn=wye bus1=p1ulv13056.1.2 kV=0.2080002494301389 Vminpu=0.8 Vmaxpu=1.2 model=1 kW=5.49005 kvar=1.1090438676940364 Phases=2

New Load.load_p1ulv13058 conn=wye bus1=p1ulv13058.1.2 kV=0.2080002494301389 Vminpu=0.8 Vmaxpu=1.2 model=1 kW=5.420050000000001 kvar=1.1005880935693348 Phases=2

New Load.load_p1ulv13061 conn=wye bus1=p1ulv13061.1.2 kV=0.2080002494301389 Vminpu=0.8 Vmaxpu=1.2 model=1 kW=3.9600400000000002 kvar=0.7999668632932473 Phases=2

New Load.load_p1ulv13083 conn=wye bus1=p1ulv13083.1.2 kV=0.2080002494301389 Vminpu=0.8 Vmaxpu=1.2 model=1 kW=4.4900400000000005 kvar=0.9093894694941951 Phases=2

New Load.load_p1ulv13085 conn=wye bus1=p1ulv13085.1.2 kV=0.2080002494301389 Vminpu=0.8 Vmaxpu=1.2 model=1 kW=3.92004 kvar=0.8000910422905317 Phases=2

New Load.load_p1ulv13102 conn=wye bus1=p1ulv13102.1.2 kV=0.2080002494301389 Vminpu=0.8 Vmaxpu=1.2 model=1 kW=4.630050000000001 kvar=0.9401717516684716 Phases=2

New Load.load_p1ulv13106 conn=wye bus1=p1ulv13106.1.2 kV=0.2080002494301389 Vminpu=0.8 Vmaxpu=1.2 model=1 kW=4.77005 kvar=0.9710930148829175 Phases=2

New Load.load_p1ulv13115 conn=wye bus1=p1ulv13115.1.2 kV=0.2080002494301389 Vminpu=0.8 Vmaxpu=1.2 model=1 kW=4.42004 kvar=0.8998375215150975 Phases=2

New Load.load_p1ulv13134 conn=wye bus1=p1ulv13134.1.2 kV=0.2080002494301389 Vminpu=0.8 Vmaxpu=1.2 model=1 kW=3.70004 kvar=0.7493869570665965 Phases=2

New Load.load_p1ulv13152 conn=wye bus1=p1ulv13152.1.2 kV=0.2080002494301389 Vminpu=0.8 Vmaxpu=1.2 model=1 kW=4.07004 kvar=0.8307064585474014 Phases=2

New Load.load_p1ulv13156 conn=wye bus1=p1ulv13156.1.2 kV=0.2080002494301389 Vminpu=0.8 Vmaxpu=1.2 model=1 kW=5.39005 kvar=1.088842888327837 Phases=2

New Load.load_p1ulv13175 conn=wye bus1=p1ulv13175.1.2 kV=0.2080002494301389 Vminpu=0.8 Vmaxpu=1.2 model=1 kW=4.70005 kvar=0.959293247854005 Phases=2

New Load.load_p1ulv13177 conn=wye bus1=p1ulv13177.1.2 kV=0.2080002494301389 Vminpu=0.8 Vmaxpu=1.2 model=1 kW=6.17006 kvar=1.249652027631681 Phases=2

New Load.load_p1ulv13180 conn=wye bus1=p1ulv13180.1.2 kV=0.2080002494301389 Vminpu=0.8 Vmaxpu=1.2 model=1 kW=5.48005 kvar=1.109900972441596 Phases=2

New Load.load_p1ulv13201 conn=wye bus1=p1ulv13201.1.2 kV=0.2080002494301389 Vminpu=0.8 Vmaxpu=1.2 model=1 kW=3.90004 kvar=0.7898939222381405 Phases=2

New Load.load_p1ulv13203 conn=wye bus1=p1ulv13203.1.2 kV=0.2080002494301389 Vminpu=0.8 Vmaxpu=1.2 model=1 kW=4.16004 kvar=0.8403688220256462 Phases=2

New Load.load_p1ulv13222 conn=wye bus1=p1ulv13222.1.2 kV=0.2080002494301389 Vminpu=0.8 Vmaxpu=1.2 model=1 kW=4.920050000000001 kvar=0.9990587632523329 Phases=2

New Load.load_p1ulv13224 conn=wye bus1=p1ulv13224.1.2 kV=0.2080002494301389 Vminpu=0.8 Vmaxpu=1.2 model=1 kW=6.350060000000001 kvar=1.2894346785455655 Phases=2

New Load.load_p1ulv13247 conn=wye bus1=p1ulv13247.1.2 kV=0.2080002494301389 Vminpu=0.8 Vmaxpu=1.2 model=1 kW=3.34003 kvar=0.679967673818805 Phases=2

New Load.load_p1ulv13250 conn=wye bus1=p1ulv13250.1.2 kV=0.2080002494301389 Vminpu=0.8 Vmaxpu=1.2 model=1 kW=3.7100400000000002 kvar=0.7494644148777485 Phases=2

New Load.load_p1ulv13262 conn=wye bus1=p1ulv13262.1.2 kV=0.2080002494301389 Vminpu=0.8 Vmaxpu=1.2 model=1 kW=6.020060000000001 kvar=1.219271803753023 Phases=2

New Load.load_p1ulv13265 conn=wye bus1=p1ulv13265.1.2 kV=0.2080002494301389 Vminpu=0.8 Vmaxpu=1.2 model=1 kW=4.55005 kvar=0.9191546616517607 Phases=2

New Load.load_p1ulv13267 conn=wye bus1=p1ulv13267.1.2 kV=0.2080002494301389 Vminpu=0.8 Vmaxpu=1.2 model=1 kW=6.76007 kvar=1.3691496002359942 Phases=2

New Load.load_p1ulv13290 conn=wye bus1=p1ulv13290.1.2 kV=0.2080002494301389 Vminpu=0.8 Vmaxpu=1.2 model=1 kW=5.05005 kvar=1.0307292191200343 Phases=2

New Load.load_p1ulv13302 conn=wye bus1=p1ulv13302.1.2 kV=0.2080002494301389 Vminpu=0.8 Vmaxpu=1.2 model=1 kW=6.22006 kvar=1.2597787689245672 Phases=2

New Load.load_p1ulv13306 conn=wye bus1=p1ulv13306.1.2 kV=0.2080002494301389 Vminpu=0.8 Vmaxpu=1.2 model=1 kW=4.07004 kvar=0.8307064585474014 Phases=2

New Load.load_p1ulv13329 conn=wye bus1=p1ulv13329.1.2 kV=0.2080002494301389 Vminpu=0.8 Vmaxpu=1.2 model=1 kW=3.7500400000000003 kvar=0.7595136983594827 Phases=2

New Load.load_p1ulv13348 conn=wye bus1=p1ulv13348.1.2 kV=0.2080002494301389 Vminpu=0.8 Vmaxpu=1.2 model=1 kW=4.42004 kvar=0.8998375215150975 Phases=2

New Load.load_p1ulv13352 conn=wye bus1=p1ulv13352.1.2 kV=0.2080002494301389 Vminpu=0.8 Vmaxpu=1.2 model=1 kW=4.37004 kvar=0.8896584561501336 Phases=2

New Load.load_p1ulv13354 conn=wye bus1=p1ulv13354.1.2 kV=0.2080002494301389 Vminpu=0.8 Vmaxpu=1.2 model=1 kW=4.16004 kvar=0.8403688220256462 Phases=2

New Load.load_p1ulv13382 conn=wye bus1=p1ulv13382.1.2 kV=0.2080002494301389 Vminpu=0.8 Vmaxpu=1.2 model=1 kW=4.590050000000001 kvar=0.9296449774282256 Phases=2

New Load.load_p1ulv13395 conn=wye bus1=p1ulv13395.1.2 kV=0.2080002494301389 Vminpu=0.8 Vmaxpu=1.2 model=1 kW=4.96005 kvar=1.0097734632697801 Phases=2

New Load.load_p1ulv13399 conn=wye bus1=p1ulv13399.1.2 kV=0.2080002494301389 Vminpu=0.8 Vmaxpu=1.2 model=1 kW=4.48004 kvar=0.9097109219867646 Phases=2

New Load.load_p1ulv13400 conn=wye bus1=p1ulv13400.1.2 kV=0.2080002494301389 Vminpu=0.8 Vmaxpu=1.2 model=1 kW=3.54004 kvar=0.7206859710917335 Phases=2

New Load.load_p1ulv13405 conn=wye bus1=p1ulv13405.1.2 kV=0.2080002494301389 Vminpu=0.8 Vmaxpu=1.2 model=1 kW=4.69005 kvar=0.9498984600139976 Phases=2

New Load.load_p1ulv13424 conn=wye bus1=p1ulv13424.1.2 kV=0.2080002494301389 Vminpu=0.8 Vmaxpu=1.2 model=1 kW=3.55004 kvar=0.7208663675971405 Phases=2

New Load.load_p1ulv13426 conn=wye bus1=p1ulv13426.1.2 kV=0.2080002494301389 Vminpu=0.8 Vmaxpu=1.2 model=1 kW=6.25006 kvar=1.269128812482165 Phases=2

New Load.load_p1ulv13445 conn=wye bus1=p1ulv13445.1.2 kV=0.2080002494301389 Vminpu=0.8 Vmaxpu=1.2 model=1 kW=4.71005 kvar=0.9588781364449609 Phases=2

New Load.load_p1ulv13447 conn=wye bus1=p1ulv13447.1.2 kV=0.2080002494301389 Vminpu=0.8 Vmaxpu=1.2 model=1 kW=3.64004 kvar=0.739141647054201 Phases=2

New Load.load_p1ulv13449 conn=wye bus1=p1ulv13449.1.2 kV=0.2080002494301389 Vminpu=0.8 Vmaxpu=1.2 model=1 kW=6.49006 kvar=1.3212548992507473 Phases=2

New Load.load_p1ulv13471 conn=wye bus1=p1ulv13471.1.2 kV=0.2080002494301389 Vminpu=0.8 Vmaxpu=1.2 model=1 kW=3.68004 kvar=0.7491873541136322 Phases=2

New Load.load_p1ulv13488 conn=wye bus1=p1ulv13488.1.2 kV=0.2080002494301389 Vminpu=0.8 Vmaxpu=1.2 model=1 kW=4.82005 kvar=0.9787528971889325 Phases=2

New Load.load_p1ulv13491 conn=wye bus1=p1ulv13491.1.2 kV=0.2080002494301389 Vminpu=0.8 Vmaxpu=1.2 model=1 kW=4.60005 kvar=0.9292551513348608 Phases=2

New Load.load_p1ulv13493 conn=wye bus1=p1ulv13493.1.2 kV=0.2080002494301389 Vminpu=0.8 Vmaxpu=1.2 model=1 kW=1.38001 kvar=0.28022298226153225 Phases=2

New Load.load_p1ulv13513 conn=wye bus1=p1ulv13513.1.2 kV=0.2080002494301389 Vminpu=0.8 Vmaxpu=1.2 model=1 kW=4.00004 kvar=0.8101474048239126 Phases=2

New Load.load_p1ulv13517 conn=wye bus1=p1ulv13517.1.2 kV=0.2080002494301389 Vminpu=0.8 Vmaxpu=1.2 model=1 kW=4.54005 kvar=0.9195182361353397 Phases=2

New Load.load_p1ulv13519 conn=wye bus1=p1ulv13519.1.2 kV=0.2080002494301389 Vminpu=0.8 Vmaxpu=1.2 model=1 kW=4.81005 kvar=0.9792362671748885 Phases=2

New Load.load_p1ulv13534 conn=wye bus1=p1ulv13534.1.2 kV=0.2080002494301389 Vminpu=0.8 Vmaxpu=1.2 model=1 kW=3.88004 kvar=0.7899036155734878 Phases=2

New Load.load_p1ulv13556 conn=wye bus1=p1ulv13556.1.2 kV=0.2080002494301389 Vminpu=0.8 Vmaxpu=1.2 model=1 kW=5.06005 kvar=1.030131593999708 Phases=2

New Load.load_p1ulv13558 conn=wye bus1=p1ulv13558.1.2 kV=0.2080002494301389 Vminpu=0.8 Vmaxpu=1.2 model=1 kW=4.48004 kvar=0.9097109219867646 Phases=2

New Load.load_p1ulv13561 conn=wye bus1=p1ulv13561.1.2 kV=0.2080002494301389 Vminpu=0.8 Vmaxpu=1.2 model=1 kW=4.29004 kvar=0.8711297764663039 Phases=2

New Load.load_p1ulv13584 conn=wye bus1=p1ulv13584.1.2 kV=0.2080002494301389 Vminpu=0.8 Vmaxpu=1.2 model=1 kW=5.96006 kvar=1.2102418008983036 Phases=2

New Load.load_p1ulv13586 conn=wye bus1=p1ulv13586.1.2 kV=0.2080002494301389 Vminpu=0.8 Vmaxpu=1.2 model=1 kW=4.200040000000001 kvar=0.8506543699954566 Phases=2

New Load.load_p1ulv13605 conn=wye bus1=p1ulv13605.1.2 kV=0.2080002494301389 Vminpu=0.8 Vmaxpu=1.2 model=1 kW=4.00004 kvar=0.8101474048239126 Phases=2

New Load.load_p1ulv13609 conn=wye bus1=p1ulv13609.1.2 kV=0.2080002494301389 Vminpu=0.8 Vmaxpu=1.2 model=1 kW=4.02004 kvar=0.8205013197951115 Phases=2

New Load.load_p1ulv13631 conn=wye bus1=p1ulv13631.1.2 kV=0.2080002494301389 Vminpu=0.8 Vmaxpu=1.2 model=1 kW=4.450040000000001 kvar=0.898951662187625 Phases=2

New Load.load_p1ulv13635 conn=wye bus1=p1ulv13635.1.2 kV=0.2080002494301389 Vminpu=0.8 Vmaxpu=1.2 model=1 kW=5.22005 kvar=1.059976361442534 Phases=2

New Load.load_p1ulv13637 conn=wye bus1=p1ulv13637.1.2 kV=0.2080002494301389 Vminpu=0.8 Vmaxpu=1.2 model=1 kW=3.91004 kvar=0.7898663736101474 Phases=2

New Load.load_p1ulv13651 conn=wye bus1=p1ulv13651.1.2 kV=0.2080002494301389 Vminpu=0.8 Vmaxpu=1.2 model=1 kW=3.48003 kvar=0.71028378024263 Phases=2

New Load.load_p1ulv13653 conn=wye bus1=p1ulv13653.1.2 kV=0.2080002494301389 Vminpu=0.8 Vmaxpu=1.2 model=1 kW=5.96006 kvar=1.2102418008983036 Phases=2

New Load.load_p1ulv13659 conn=wye bus1=p1ulv13659.1.2 kV=0.2080002494301389 Vminpu=0.8 Vmaxpu=1.2 model=1 kW=6.26006 kvar=1.2711593990885048 Phases=2

New Load.load_p1ulv13676 conn=wye bus1=p1ulv13676.1.2 kV=0.2080002494301389 Vminpu=0.8 Vmaxpu=1.2 model=1 kW=3.24003 kvar=0.6596095430888772 Phases=2

New Load.load_p1ulv13678 conn=wye bus1=p1ulv13678.1.2 kV=0.2080002494301389 Vminpu=0.8 Vmaxpu=1.2 model=1 kW=4.97005 kvar=1.009211696284033 Phases=2

New Load.load_p1ulv13680 conn=wye bus1=p1ulv13680.1.2 kV=0.2080002494301389 Vminpu=0.8 Vmaxpu=1.2 model=1 kW=4.18004 kvar=0.8509780077632708 Phases=2

New Load.load_p1ulv13694 conn=wye bus1=p1ulv13694.1.2 kV=0.2080002494301389 Vminpu=0.8 Vmaxpu=1.2 model=1 kW=4.52005 kvar=0.9201976880580982 Phases=2

New Load.load_p1ulv13697 conn=wye bus1=p1ulv13697.1.2 kV=0.2080002494301389 Vminpu=0.8 Vmaxpu=1.2 model=1 kW=5.76006 kvar=1.1696300687715029 Phases=2

New Load.load_p1ulv13701 conn=wye bus1=p1ulv13701.1.2 kV=0.2080002494301389 Vminpu=0.8 Vmaxpu=1.2 model=1 kW=3.84004 kvar=0.7797533791810017 Phases=2

New Load.load_p1ulv13703 conn=wye bus1=p1ulv13703.1.2 kV=0.2080002494301389 Vminpu=0.8 Vmaxpu=1.2 model=1 kW=5.78006 kvar=1.1706634455471703 Phases=2

New Load.load_p1ulv13722 conn=wye bus1=p1ulv13722.1.2 kV=0.2080002494301389 Vminpu=0.8 Vmaxpu=1.2 model=1 kW=3.46003 kvar=0.7007765735124853 Phases=2

New Load.load_p1ulv13724 conn=wye bus1=p1ulv13724.1.2 kV=0.2080002494301389 Vminpu=0.8 Vmaxpu=1.2 model=1 kW=5.05005 kvar=1.0307292191200343 Phases=2

New Load.load_p1ulv13755 conn=wye bus1=p1ulv13755.1.2 kV=0.2080002494301389 Vminpu=0.8 Vmaxpu=1.2 model=1 kW=1.63002 kvar=0.3301358168446 Phases=2

New Load.load_p1ulv13759 conn=wye bus1=p1ulv13759.1.2 kV=0.2080002494301389 Vminpu=0.8 Vmaxpu=1.2 model=1 kW=5.48005 kvar=1.109900972441596 Phases=2

New Load.load_p1ulv13774 conn=wye bus1=p1ulv13774.1.2 kV=0.2080002494301389 Vminpu=0.8 Vmaxpu=1.2 model=1 kW=4.13004 kvar=0.840798942398307 Phases=2

New Load.load_p1ulv13775 conn=wye bus1=p1ulv13775.1.2 kV=0.2080002494301389 Vminpu=0.8 Vmaxpu=1.2 model=1 kW=5.36005 kvar=1.091205986189491 Phases=2

New Load.load_p1ulv13796 conn=wye bus1=p1ulv13796.1.2 kV=0.2080002494301389 Vminpu=0.8 Vmaxpu=1.2 model=1 kW=3.40003 kvar=0.6904055379154336 Phases=2

New Load.load_p1ulv13800 conn=wye bus1=p1ulv13800.1.2 kV=0.2080002494301389 Vminpu=0.8 Vmaxpu=1.2 model=1 kW=5.15005 kvar=1.0511394966246144 Phases=2

New Load.load_p1ulv13815 conn=wye bus1=p1ulv13815.1.2 kV=0.2080002494301389 Vminpu=0.8 Vmaxpu=1.2 model=1 kW=7.01007 kvar=1.419783306700424 Phases=2

New Load.load_p1ulv13820 conn=wye bus1=p1ulv13820.1.2 kV=0.2080002494301389 Vminpu=0.8 Vmaxpu=1.2 model=1 kW=1.50002 kvar=0.2998502484502169 Phases=2

New Load.load_p1ulv13823 conn=wye bus1=p1ulv13823.1.2 kV=0.2080002494301389 Vminpu=0.8 Vmaxpu=1.2 model=1 kW=1.79002 kvar=0.35971543666359257 Phases=2

New Load.load_p1ulv13844 conn=wye bus1=p1ulv13844.1.2 kV=0.2080002494301389 Vminpu=0.8 Vmaxpu=1.2 model=1 kW=4.44004 kvar=0.8992627282013091 Phases=2

New Load.load_p1ulv13864 conn=wye bus1=p1ulv13864.1.2 kV=0.2080002494301389 Vminpu=0.8 Vmaxpu=1.2 model=1 kW=4.60005 kvar=0.9292551513348608 Phases=2

New Load.load_p1ulv13866 conn=wye bus1=p1ulv13866.1.2 kV=0.2080002494301389 Vminpu=0.8 Vmaxpu=1.2 model=1 kW=1.38001 kvar=0.28022298226153225 Phases=2

New Load.load_p1ulv13892 conn=wye bus1=p1ulv13892.1.2 kV=0.2080002494301389 Vminpu=0.8 Vmaxpu=1.2 model=1 kW=3.54004 kvar=0.7206859710917335 Phases=2

New Load.load_p1ulv13894 conn=wye bus1=p1ulv13894.1.2 kV=0.2080002494301389 Vminpu=0.8 Vmaxpu=1.2 model=1 kW=6.52007 kvar=1.3205412420301414 Phases=2

New Load.load_p1ulv13896 conn=wye bus1=p1ulv13896.1.2 kV=0.2080002494301389 Vminpu=0.8 Vmaxpu=1.2 model=1 kW=4.05004 kvar=0.8202741461167985 Phases=2

New Load.load_p1ulv13934 conn=wye bus1=p1ulv13934.1.2 kV=0.2080002494301389 Vminpu=0.8 Vmaxpu=1.2 model=1 kW=4.81005 kvar=0.9792362671748885 Phases=2

...